@<TRIPOS>MOLECULE
/home/suncc/Code/pub/himatcal/examples/EleCal/GAFF/quacc-2024-10-21-07-50-25-229963-94095/Gaussian.pdb
 10 10 0 0 0
SMALL
GASTEIGER

@<TRIPOS>ATOM
      1  O          0.5070   -1.1040   -0.5520 O.3     1  UNK1       -0.4304
      2  O         -1.3180    0.1290   -0.1600 O.3     1  UNK1       -0.4304
      3  O         -1.5070   -1.8110   -1.3220 O.2     1  UNK1       -0.2029
      4  C          0.9370   -0.0720    0.3450 C.3     1  UNK1        0.1300
      5  C         -0.2190    0.9350    0.2850 C.3     1  UNK1        0.1300
      6  C         -0.8400   -1.0100   -0.7380 C.2     1  UNK1        0.5104
      7  H          1.8890    0.3290   -0.0090 H       1  UNK1        0.0733
      8  H          1.0700   -0.5020    1.3440 H       1  UNK1        0.0733
      9  H         -0.0460    1.7330   -0.4450 H       1  UNK1        0.0733
     10  H         -0.4740    1.3730    1.2520 H       1  UNK1        0.0733
@<TRIPOS>BOND
     1     3     6    2
     2     6     1    1
     3     6     2    1
     4     1     4    1
     5     9     5    1
     6     2     5    1
     7     7     4    1
     8     5     4    1
     9     5    10    1
    10     4     8    1
